networks/opendss/CKT_776_14880.dss
! OpenDSS script generated from multiconductor network
Clear

New Circuit.mc_network basekv=12.0 pu=1.000000 angle=0.00 frequency=60.0 phases=3 Mvasc3=143993 Mvasc1=47997.6
~ bus1=-8888882180277.1.2.3

! Line codes
New LineCode.1/0_ATW_3PH_12KV_3 nphases=3 units=km Rmatrix=[ 1e-05 | 0 1e-05 | 0 0 1e-05 ] Xmatrix=[ 1e-05 | 0 1e-05 | 0 0 1e-05 ] Cmatrix=[ 0 | 0 0 | 0 0 0 ]
New LineCode.336_ACSR_3PH_12KV_3 nphases=3 units=km Rmatrix=[ 0.050935 | 0 0.050935 | 0 0 0.050935 ] Xmatrix=[ 0.114062 | 0 0.114062 | 0 0 0.114062 ] Cmatrix=[ 0 | 0 0 | 0 0 0 ]
New LineCode.1/0_ACSR_3PH_12KV_3 nphases=3 units=km Rmatrix=[ 0.112528 | 0 0.112528 | 0 0 0.112528 ] Xmatrix=[ 0.089594 | 0 0.089594 | 0 0 0.089594 ] Cmatrix=[ 0 | 0 0 | 0 0 0 ]
New LineCode.1/0_JCN_3PH_12KV_3 nphases=3 units=km Rmatrix=[ 0.096287 | 0 0.096287 | 0 0 0.096287 ] Xmatrix=[ 0.02943 | 0 0.02943 | 0 0 0.02943 ] Cmatrix=[ 0 | 0 0 | 0 0 0 ]
New LineCode.4_ACSR_3PH_12KV_3 nphases=3 units=km Rmatrix=[ 0.381184 | 0 0.381184 | 0 0 0.381184 ] Xmatrix=[ 0.139873 | 0 0.139873 | 0 0 0.139873 ] Cmatrix=[ 0 | 0 0 | 0 0 0 ]
New LineCode.2/0_CU_3PH_12KV_3 nphases=3 units=km Rmatrix=[ 0.252425 | 0 0.252425 | 0 0 0.252425 ] Xmatrix=[ 0.389326 | 0 0.389326 | 0 0 0.389326 ] Cmatrix=[ 0 | 0 0 | 0 0 0 ]
New LineCode.4/0_CU_3PH_12KV_3 nphases=3 units=km Rmatrix=[ 0.151664 | 0 0.151664 | 0 0 0.151664 ] Xmatrix=[ 0.35705 | 0 0.35705 | 0 0 0.35705 ] Cmatrix=[ 0 | 0 0 | 0 0 0 ]
New LineCode.6_CU_3PH_12KV_3 nphases=3 units=km Rmatrix=[ 0.503314 | 0 0.503314 | 0 0 0.503314 ] Xmatrix=[ 0.178403 | 0 0.178403 | 0 0 0.178403 ] Cmatrix=[ 0 | 0 0 | 0 0 0 ]
New LineCode.4/0_ACSR_3PH_12KV_3 nphases=3 units=km Rmatrix=[ 0.02619 | 0 0.02619 | 0 0 0.02619 ] Xmatrix=[ 0.037013 | 0 0.037013 | 0 0 0.037013 ] Cmatrix=[ 0 | 0 0 | 0 0 0 ]
New LineCode.2_CU_3PH_12KV_3 nphases=3 units=km Rmatrix=[ 0.145359 | 0 0.145359 | 0 0 0.145359 ] Xmatrix=[ 0.118209 | 0 0.118209 | 0 0 0.118209 ] Cmatrix=[ 0 | 0 0 | 0 0 0 ]

! Lines
New Line.ND20760383$BF00054 phases=3 Bus1=20760383.1.2.3 Bus2=259968272.1.2.3 LineCode=1/0_ATW_3PH_12KV_3 Length=0.007126 units=km
New Line.BF00054$1018731E phases=3 Bus1=259968273.1.2.3 Bus2=20759615.1.2.3 LineCode=1/0_ATW_3PH_12KV_3 Length=0.035505 units=km
New Line.PS1640$14880 phases=3 Bus1=-8888882180277.1.2.3 Bus2=20759909.1.2.3 LineCode=336_ACSR_3PH_12KV_3 Length=0.223369 units=km
New Line.4070884E$PS6652 phases=3 Bus1=20759299.1.2.3 Bus2=243625658.1.2.3 LineCode=1/0_ACSR_3PH_12KV_3 Length=0.169205 units=km
New Line.239525775$P5779270-1 phases=3 Bus1=239525778.1.2.3 Bus2=239525740.1.2.3 LineCode=1/0_JCN_3PH_12KV_3 Length=0.005874 units=km
New Line.PS6652$PH442E phases=3 Bus1=243625659.1.2.3 Bus2=243625689.1.2.3 LineCode=1/0_ACSR_3PH_12KV_3 Length=0.0054 units=km
New Line.2187810E$207516849 phases=3 Bus1=207516777.1.2.3 Bus2=207516851.1.2.3 LineCode=1/0_JCN_3PH_12KV_3 Length=0.085143 units=km
New Line.PH442E$243625762 phases=3 Bus1=243625695.1.2.3 Bus2=243625764.1.2.3 LineCode=1/0_JCN_3PH_12KV_3 Length=0.119855 units=km
New Line.207516849$P5728298-1 phases=3 Bus1=207516852.1.2.3 Bus2=207516805.1.2.3 LineCode=1/0_JCN_3PH_12KV_3 Length=0.00542 units=km
New Line.243625762$P5774049-1 phases=3 Bus1=243625765.1.2.3 Bus2=243625727.1.2.3 LineCode=1/0_JCN_3PH_12KV_3 Length=0.004639 units=km
New Line.ND105649602$ND239525640 phases=3 Bus1=105649602.1.2.3 Bus2=239525640.1.2.3 LineCode=4_ACSR_3PH_12KV_3 Length=0.821349 units=km
New Line.ND239525640$4695819E phases=3 Bus1=239525640.1.2.3 Bus2=116083999.1.2.3 LineCode=4_ACSR_3PH_12KV_3 Length=0.781926 units=km
New Line.ND239525640$PS6679 phases=3 Bus1=239525640.1.2.3 Bus2=239525653.1.2.3 LineCode=4_ACSR_3PH_12KV_3 Length=0.012165 units=km
New Line.4247606E$P5707821-1 phases=3 Bus1=197661416.1.2.3 Bus2=197661444.1.2.3 LineCode=1/0_JCN_3PH_12KV_3 Length=0.136959 units=km
New Line.PS6679$PH810E phases=3 Bus1=239525654.1.2.3 Bus2=239525689.1.2.3 LineCode=4_ACSR_3PH_12KV_3 Length=0.004668 units=km
New Line.PH810E$239525775 phases=3 Bus1=239525690.1.2.3 Bus2=239525777.1.2.3 LineCode=1/0_JCN_3PH_12KV_3 Length=0.129246 units=km
New Line.ND93081120$4538413E phases=3 Bus1=93081120.1.2.3 Bus2=93081114.1.2.3 LineCode=4_ACSR_3PH_12KV_3 Length=0.075648 units=km
New Line.PS1640$ND243625818 phases=3 Bus1=20759908.1.2.3 Bus2=243625818.1.2.3 LineCode=2/0_CU_3PH_12KV_3 Length=2.07906 units=km
New Line.ND243625818$ND20760432 phases=3 Bus1=243625818.1.2.3 Bus2=20760432.1.2.3 LineCode=2/0_CU_3PH_12KV_3 Length=0.837342 units=km
New Line.ND243625818$BF14952 phases=3 Bus1=243625818.1.2.3 Bus2=243625827.1.2.3 LineCode=1/0_ACSR_3PH_12KV_3 Length=0.008695 units=km
New Line.ND20760432$ND20760433 phases=3 Bus1=20760432.1.2.3 Bus2=20760433.1.2.3 LineCode=4/0_CU_3PH_12KV_3 Length=0.80576 units=km
New Line.1991573E$BF14952 phases=3 Bus1=243625828.1.2.3 Bus2=206739493.1.2.3 LineCode=1/0_ACSR_3PH_12KV_3 Length=0.018408 units=km
New Line.1293923E$ND20760433 phases=3 Bus1=20760433.1.2.3 Bus2=20760155.1.2.3 LineCode=1/0_ACSR_3PH_12KV_3 Length=0.00804 units=km
New Line.ND20760433$ND20760415 phases=3 Bus1=20760433.1.2.3 Bus2=20760415.1.2.3 LineCode=4/0_CU_3PH_12KV_3 Length=0.808363 units=km
New Line.ND20760415$2187805E phases=3 Bus1=20760415.1.2.3 Bus2=20759563.1.2.3 LineCode=4/0_CU_3PH_12KV_3 Length=0.441637 units=km
New Line.2187801E$ND20760415 phases=3 Bus1=20760415.1.2.3 Bus2=20759935.1.2.3 LineCode=1/0_ACSR_3PH_12KV_3 Length=0.019142 units=km
New Line.1991573E$1991577E phases=3 Bus1=206739494.1.2.3 Bus2=20759719.1.2.3 LineCode=1/0_ACSR_3PH_12KV_3 Length=0.273323 units=km
New Line.1293923E$4353944E phases=3 Bus1=20760156.1.2.3 Bus2=20759819.1.2.3 LineCode=1/0_ACSR_3PH_12KV_3 Length=0.033583 units=km
New Line.2187805E$ND20760394 phases=3 Bus1=20759563.1.2.3 Bus2=20760394.1.2.3 LineCode=4/0_CU_3PH_12KV_3 Length=0.080875 units=km
New Line.1991577E$4070884E phases=3 Bus1=20759719.1.2.3 Bus2=20759299.1.2.3 LineCode=1/0_ACSR_3PH_12KV_3 Length=0.457215 units=km
New Line.4353944E$1871078E phases=3 Bus1=20759819.1.2.3 Bus2=20759324.1.2.3 LineCode=1/0_ACSR_3PH_12KV_3 Length=0.366504 units=km
New Line.ND20760394$2316411E phases=3 Bus1=20760394.1.2.3 Bus2=20759590.1.2.3 LineCode=4_ACSR_3PH_12KV_3 Length=0.033569 units=km
New Line.2187801E$4352351E phases=3 Bus1=20759934.1.2.3 Bus2=20759794.1.2.3 LineCode=1/0_ACSR_3PH_12KV_3 Length=0.917022 units=km
New Line.ND20760394$ND20760383 phases=3 Bus1=20760394.1.2.3 Bus2=20760383.1.2.3 LineCode=4/0_CU_3PH_12KV_3 Length=0.181583 units=km
New Line.2316411E$1144477E phases=3 Bus1=20759590.1.2.3 Bus2=20759536.1.2.3 LineCode=4_ACSR_3PH_12KV_3 Length=0.050831 units=km
New Line.1871078E$4099059E phases=3 Bus1=20759324.1.2.3 Bus2=20759844.1.2.3 LineCode=1/0_ACSR_3PH_12KV_3 Length=0.338216 units=km
New Line.ND20760384$ND20760383 phases=3 Bus1=20760383.1.2.3 Bus2=20760384.1.2.3 LineCode=4/0_CU_3PH_12KV_3 Length=0.079693 units=km
New Line.BF12929$ND20760384 phases=3 Bus1=20760384.1.2.3 Bus2=207516726.1.2.3 LineCode=6_CU_3PH_12KV_3 Length=0.007402 units=km
New Line.ND20760384$2187810E phases=3 Bus1=20760384.1.2.3 Bus2=207516772.1.2.3 LineCode=4/0_CU_3PH_12KV_3 Length=0.007874 units=km
New Line.ND45292088$4700022E phases=3 Bus1=45292088.1.2.3 Bus2=45291084.1.2.3 LineCode=1/0_ACSR_3PH_12KV_3 Length=0.01589 units=km
New Line.1958295E$4702381E phases=3 Bus1=147481771.1.2.3 Bus2=45291003.1.2.3 LineCode=336_ACSR_3PH_12KV_3 Length=0.135026 units=km
New Line.ND45292188$1958295E phases=3 Bus1=45291003.1.2.3 Bus2=45292188.1.2.3 LineCode=336_ACSR_3PH_12KV_3 Length=0.059829 units=km
New Line.PS1796$ND20760384 phases=3 Bus1=20760384.1.2.3 Bus2=20760006.1.2.3 LineCode=4/0_CU_3PH_12KV_3 Length=0.723179 units=km
New Line.4257005E$BF12929 phases=3 Bus1=207516727.1.2.3 Bus2=20759898.1.2.3 LineCode=6_CU_3PH_12KV_3 Length=0.340153 units=km
New Line.PS1796$ND20760355 phases=3 Bus1=20760005.1.2.3 Bus2=20760355.1.2.3 LineCode=4/0_ACSR_3PH_12KV_3 Length=0.077355 units=km
New Line.ND45291685$ND45292188 phases=3 Bus1=45292188.1.2.3 Bus2=45291685.1.2.3 LineCode=336_ACSR_3PH_12KV_3 Length=0.221999 units=km
New Line.1958294E$ND45292188 phases=3 Bus1=45292188.1.2.3 Bus2=45291691.1.2.3 LineCode=1/0_ACSR_3PH_12KV_3 Length=0.033093 units=km
New Line.ND45292188$ND45291928 phases=3 Bus1=45292188.1.2.3 Bus2=45291928.1.2.3 LineCode=336_ACSR_3PH_12KV_3 Length=0.125268 units=km
New Line.4699676E$ND45291685 phases=3 Bus1=45291685.1.2.3 Bus2=138938582.1.2.3 LineCode=336_ACSR_3PH_12KV_3 Length=0.604015 units=km
New Line.1706330E$ND45291928 phases=3 Bus1=45291928.1.2.3 Bus2=45291717.1.2.3 LineCode=1/0_ACSR_3PH_12KV_3 Length=0.054298 units=km
New Line.ND45291928$ND45291977 phases=3 Bus1=45291928.1.2.3 Bus2=45291977.1.2.3 LineCode=336_ACSR_3PH_12KV_3 Length=1.06714 units=km
New Line.1958294E$1019344E phases=3 Bus1=45291690.1.2.3 Bus2=45291329.1.2.3 LineCode=1/0_ACSR_3PH_12KV_3 Length=0.036169 units=km
New Line.ND45291977$4352177E phases=3 Bus1=45291977.1.2.3 Bus2=45291460.1.2.3 LineCode=336_ACSR_3PH_12KV_3 Length=0.040607 units=km
New Line.PS1771$4699676E phases=3 Bus1=138938582.1.2.3 Bus2=45291640.1.2.3 LineCode=336_ACSR_3PH_12KV_3 Length=0.697743 units=km
New Line.1706316E$ND45291977 phases=3 Bus1=45291977.1.2.3 Bus2=45291730.1.2.3 LineCode=4_ACSR_3PH_12KV_3 Length=0.010308 units=km
New Line.1706330E$652744E phases=3 Bus1=45291718.1.2.3 Bus2=45290706.1.2.3 LineCode=1/0_ACSR_3PH_12KV_3 Length=0.031929 units=km
New Line.4352177E$4352176E phases=3 Bus1=45291460.1.2.3 Bus2=45291489.1.2.3 LineCode=336_ACSR_3PH_12KV_3 Length=0.06277 units=km
New Line.4352176E$4352175E phases=3 Bus1=45291489.1.2.3 Bus2=207516672.1.2.3 LineCode=336_ACSR_3PH_12KV_3 Length=0.161686 units=km
New Line.1706316E$4620978E phases=3 Bus1=45291731.1.2.3 Bus2=45291167.1.2.3 LineCode=4_ACSR_3PH_12KV_3 Length=0.075376 units=km
New Line.PS1771$ND45291904 phases=3 Bus1=45291641.1.2.3 Bus2=45291904.1.2.3 LineCode=336_ACSR_3PH_12KV_3 Length=0.079356 units=km
New Line.4352175E$PS0170 phases=3 Bus1=207516672.1.2.3 Bus2=16295249.1.2.3 LineCode=336_ACSR_3PH_12KV_3 Length=0.069872 units=km
New Line.652518E$ND45291904 phases=3 Bus1=45291904.1.2.3 Bus2=190791651.1.2.3 LineCode=336_ACSR_3PH_12KV_3 Length=0.420165 units=km
New Line.ND45291904$1536294E phases=3 Bus1=45291904.1.2.3 Bus2=243484174.1.2.3 LineCode=336_ACSR_3PH_12KV_3 Length=0.025143 units=km
New Line.4620978E$731205E phases=3 Bus1=45291167.1.2.3 Bus2=45290681.1.2.3 LineCode=4_ACSR_3PH_12KV_3 Length=0.038261 units=km
New Line.ND45291904$ND45291890 phases=3 Bus1=45291904.1.2.3 Bus2=45291890.1.2.3 LineCode=336_ACSR_3PH_12KV_3 Length=0.802608 units=km
New Line.ND45291890$PS0482 phases=3 Bus1=45291890.1.2.3 Bus2=15152211.1.2.3 LineCode=336_ACSR_3PH_12KV_3 Length=0.214998 units=km
New Line.ND45291890$BF12623 phases=3 Bus1=45291890.1.2.3 Bus2=196176761.1.2.3 LineCode=1/0_ACSR_3PH_12KV_3 Length=0.009892 units=km
New Line.1536294E$ND243484174 phases=3 Bus1=243484174.1.2.3 Bus2=242254019.1.2.3 LineCode=336_ACSR_3PH_12KV_3 Length=0.01113 units=km
New Line.ND45292095$652518E phases=3 Bus1=190791651.1.2.3 Bus2=45292095.1.2.3 LineCode=336_ACSR_3PH_12KV_3 Length=0.592802 units=km
New Line.1018565E$ND45292095 phases=3 Bus1=45292095.1.2.3 Bus2=45291194.1.2.3 LineCode=336_ACSR_3PH_12KV_3 Length=0.404426 units=km
New Line.PS1766$1536294E phases=3 Bus1=242254019.1.2.3 Bus2=45291666.1.2.3 LineCode=336_ACSR_3PH_12KV_3 Length=0.150547 units=km
New Line.652521ET$ND45292095 phases=3 Bus1=45292095.1.2.3 Bus2=45291801.1.2.3 LineCode=4_ACSR_3PH_12KV_3 Length=0.03388 units=km
New Line.ND196176804$BF12623 phases=3 Bus1=196176762.1.2.3 Bus2=196176804.1.2.3 LineCode=1/0_ACSR_3PH_12KV_3 Length=0.409954 units=km
New Line.ND45291884$1018565E phases=3 Bus1=45291194.1.2.3 Bus2=45291884.1.2.3 LineCode=336_ACSR_3PH_12KV_3 Length=0.037748 units=km
New Line.4693139E$ND196176804 phases=3 Bus1=196176804.1.2.3 Bus2=110326258.1.2.3 LineCode=1/0_ACSR_3PH_12KV_3 Length=0.150568 units=km
New Line.ND45291884$PS1244 phases=3 Bus1=45291884.1.2.3 Bus2=196962751.1.2.3 LineCode=336_ACSR_3PH_12KV_3 Length=0.685292 units=km
New Line.4247606E$ND196176804 phases=3 Bus1=196176804.1.2.3 Bus2=197661411.1.2.3 LineCode=4_ACSR_3PH_12KV_3 Length=0.26489 units=km
New Line.652521ET$2056999E phases=3 Bus1=45291800.1.2.3 Bus2=45291250.1.2.3 LineCode=4_ACSR_3PH_12KV_3 Length=0.260793 units=km
New Line.PS1766$ND45291962 phases=3 Bus1=45291665.1.2.3 Bus2=45291962.1.2.3 LineCode=336_ACSR_3PH_12KV_3 Length=0.706156 units=km
New Line.ND45291962$BF14733 phases=3 Bus1=45291962.1.2.3 Bus2=243484117.1.2.3 LineCode=1/0_ACSR_3PH_12KV_3 Length=0.0511 units=km
New Line.ND20760355$ND196983367 phases=3 Bus1=20760355.1.2.3 Bus2=196983367.1.2.3 LineCode=336_ACSR_3PH_12KV_3 Length=0.027061 units=km
New Line.PS1857$ND20760355 phases=3 Bus1=20760355.1.2.3 Bus2=20760034.1.2.3 LineCode=336_ACSR_3PH_12KV_3 Length=0.212799 units=km
New Line.ND20760355$PS0085 phases=3 Bus1=20760355.1.2.3 Bus2=210360521.1.2.3 LineCode=4/0_CU_3PH_12KV_3 Length=0.081077 units=km
New Line.ND196983367$PS1861 phases=3 Bus1=196983367.1.2.3 Bus2=20759980.1.2.3 LineCode=336_ACSR_3PH_12KV_3 Length=0.069132 units=km
New Line.PS1857$ND20760681 phases=3 Bus1=20760033.1.2.3 Bus2=20760681.1.2.3 LineCode=336_ACSR_3PH_12KV_3 Length=0.223893 units=km
New Line.ND20760681$4414503E phases=3 Bus1=20760681.1.2.3 Bus2=20759871.1.2.3 LineCode=4_ACSR_3PH_12KV_3 Length=0.028724 units=km
New Line.ND20760681$ND20760585 phases=3 Bus1=20760681.1.2.3 Bus2=20760585.1.2.3 LineCode=336_ACSR_3PH_12KV_3 Length=0.066567 units=km
New Line.1706348E$PS1861 phases=3 Bus1=20759981.1.2.3 Bus2=45291140.1.2.3 LineCode=336_ACSR_3PH_12KV_3 Length=0.040831 units=km
New Line.ND20760585$ND105649602 phases=3 Bus1=20760585.1.2.3 Bus2=105649602.1.2.3 LineCode=336_ACSR_3PH_12KV_3 Length=0.304711 units=km
New Line.ND20760585$638524E phases=3 Bus1=20760585.1.2.3 Bus2=20759349.1.2.3 LineCode=1/0_ACSR_3PH_12KV_3 Length=0.032516 units=km
New Line.ND45292113$1706348E phases=3 Bus1=45291140.1.2.3 Bus2=45292113.1.2.3 LineCode=336_ACSR_3PH_12KV_3 Length=0.277939 units=km
New Line.ND179228365$ND45292113 phases=3 Bus1=45292113.1.2.3 Bus2=179228365.1.2.3 LineCode=336_ACSR_3PH_12KV_3 Length=0.137517 units=km
New Line.ND105649602$ND20760409 phases=3 Bus1=105649602.1.2.3 Bus2=20760409.1.2.3 LineCode=336_ACSR_3PH_12KV_3 Length=0.473096 units=km
New Line.ND20760409$1584258E phases=3 Bus1=20760409.1.2.3 Bus2=20759376.1.2.3 LineCode=336_ACSR_3PH_12KV_3 Length=0.054437 units=km
New Line.1706341E$ND179228365 phases=3 Bus1=179228365.1.2.3 Bus2=45291302.1.2.3 LineCode=336_ACSR_3PH_12KV_3 Length=0.136358 units=km
New Line.1706344E$ND179228365 phases=3 Bus1=179228365.1.2.3 Bus2=45291758.1.2.3 LineCode=4_ACSR_3PH_12KV_3 Length=0.028523 units=km
New Line.ND45291962$817975E phases=3 Bus1=45291962.1.2.3 Bus2=45290874.1.2.3 LineCode=4_ACSR_3PH_12KV_3 Length=0.068319 units=km
New Line.ND45291962$895836E phases=3 Bus1=45291962.1.2.3 Bus2=45290926.1.2.3 LineCode=1/0_ACSR_3PH_12KV_3 Length=0.026506 units=km
New Line.4693139E$744075E phases=3 Bus1=110326258.1.2.3 Bus2=45291595.1.2.3 LineCode=1/0_ACSR_3PH_12KV_3 Length=0.334327 units=km
New Line.817975E$4232377E phases=3 Bus1=45290874.1.2.3 Bus2=45290845.1.2.3 LineCode=4_ACSR_3PH_12KV_3 Length=0.37782 units=km
New Line.744075E$1893433E phases=3 Bus1=45291595.1.2.3 Bus2=45291354.1.2.3 LineCode=1/0_ACSR_3PH_12KV_3 Length=0.421079 units=km
New Line.BF14733$4276448E phases=3 Bus1=243484118.1.2.3 Bus2=45291379.1.2.3 LineCode=1/0_ACSR_3PH_12KV_3 Length=0.070608 units=km
New Line.4232377E$ND45291677 phases=3 Bus1=45290845.1.2.3 Bus2=45291677.1.2.3 LineCode=4_ACSR_3PH_12KV_3 Length=0.421104 units=km
New Line.1584258E$ND20760481 phases=3 Bus1=20759376.1.2.3 Bus2=20760481.1.2.3 LineCode=336_ACSR_3PH_12KV_3 Length=0.266591 units=km
New Line.ND45292082$1706341E phases=3 Bus1=45291302.1.2.3 Bus2=45292082.1.2.3 LineCode=336_ACSR_3PH_12KV_3 Length=0.053718 units=km
New Line.PS1862$ND20760481 phases=3 Bus1=20760481.1.2.3 Bus2=165557903.1.2.3 LineCode=1/0_ACSR_3PH_12KV_3 Length=0.117099 units=km
New Line.ND20760481$ND20760567 phases=3 Bus1=20760481.1.2.3 Bus2=20760567.1.2.3 LineCode=336_ACSR_3PH_12KV_3 Length=0.460286 units=km
New Line.1706340E$ND45292082 phases=3 Bus1=45292082.1.2.3 Bus2=45290816.1.2.3 LineCode=336_ACSR_3PH_12KV_3 Length=0.053718 units=km
New Line.1706344E$4700021E phases=3 Bus1=45291757.1.2.3 Bus2=45291570.1.2.3 LineCode=4_ACSR_3PH_12KV_3 Length=0.078763 units=km
New Line.1706340ET1$ND45292082 phases=3 Bus1=45292082.1.2.3 Bus2=45291791.1.2.3 LineCode=4_ACSR_3PH_12KV_3 Length=0.033709 units=km
New Line.ND20760567$ND200961200 phases=3 Bus1=20760567.1.2.3 Bus2=200961200.1.2.3 LineCode=336_ACSR_3PH_12KV_3 Length=0.274134 units=km
New Line.1590339E$ND20760567 phases=3 Bus1=20760567.1.2.3 Bus2=20760115.1.2.3 LineCode=6_CU_3PH_12KV_3 Length=0.03354 units=km
New Line.ND93081120$1706340E phases=3 Bus1=45290816.1.2.3 Bus2=93081120.1.2.3 LineCode=336_ACSR_3PH_12KV_3 Length=0.10903 units=km
New Line.ND200961200$ND276556591 phases=3 Bus1=200961200.1.2.3 Bus2=276556545.1.2.3 LineCode=336_ACSR_3PH_12KV_3 Length=0.336439 units=km
New Line.1706340ET1$1019189E phases=3 Bus1=45291790.1.2.3 Bus2=45291275.1.2.3 LineCode=4_ACSR_3PH_12KV_3 Length=0.120527 units=km
New Line.ND45292088$ND93081120 phases=3 Bus1=93081120.1.2.3 Bus2=45292088.1.2.3 LineCode=336_ACSR_3PH_12KV_3 Length=0.301469 units=km
New Line.4702381E$ND45292088 phases=3 Bus1=45292088.1.2.3 Bus2=147481771.1.2.3 LineCode=336_ACSR_3PH_12KV_3 Length=0.259316 units=km
New Line.1590339E$4695153E phases=3 Bus1=20760116.1.2.3 Bus2=20759403.1.2.3 LineCode=6_CU_3PH_12KV_3 Length=0.03354 units=km
New Line.ND45291677$PS2002 phases=3 Bus1=45291677.1.2.3 Bus2=14799964.1.2.3 LineCode=2_CU_3PH_12KV_3 Length=0.242642 units=km
New Line.4276448E$1790079E phases=3 Bus1=45291379.1.2.3 Bus2=45290951.1.2.3 LineCode=1/0_ACSR_3PH_12KV_3 Length=0.743687 units=km
New Line.1790079E$ND45292480 phases=3 Bus1=45290951.1.2.3 Bus2=-77777745290951.1.2.3 LineCode=1/0_ACSR_3PH_12KV_3 Length=0.085299 units=km

! Switches
New Line.276556567$PDRSR3884-C phases=3 Bus1=276556528.1.2.3 Bus2=276556527.1.2.3 switch=y r1=0.001 x1=0.001 r0=0.001 x0=0.001 Length=0.001 units=km
New Line.1590342E:PDRSR3884-C phases=3 Bus1=276556546.1.2.3 Bus2=276556528.1.2.3 switch=y r1=0.001 x1=0.001 r0=0.001 x0=0.001 Length=0.001 units=km enabled=false
New Line.1706312E:PS0170 phases=3 Bus1=16295249.1.2.3 Bus2=16295248.1.2.3 switch=y r1=0.001 x1=0.001 r0=0.001 x0=0.001 Length=0.001 units=km enabled=false
New Line.652503E:PS0482 phases=3 Bus1=15152211.1.2.3 Bus2=15152210.1.2.3 switch=y r1=0.001 x1=0.001 r0=0.001 x0=0.001 Length=0.001 units=km enabled=false
New Line.2187821E:PS0085 phases=3 Bus1=210360521.1.2.3 Bus2=210360529.1.2.3 switch=y r1=0.001 x1=0.001 r0=0.001 x0=0.001 Length=0.001 units=km enabled=false
New Line.1494466E:PS1862 phases=3 Bus1=165557903.1.2.3 Bus2=165557902.1.2.3 switch=y r1=0.001 x1=0.001 r0=0.001 x0=0.001 Length=0.001 units=km enabled=false
New Line.4710345E:PS2002 phases=3 Bus1=14799964.1.2.3 Bus2=14799963.1.2.3 switch=y r1=0.001 x1=0.001 r0=0.001 x0=0.001 Length=0.001 units=km enabled=false
New Line.RIECK$STONE_276556567$276556567 phases=3 Bus1=276556527.1.2.3 Bus2=-777777276556527.1.2.3 switch=y r1=0.001 x1=0.001 r0=0.001 x0=0.001 Length=0.001 units=km
New Line.RIECK$BURUM_PS0170$PS0170 phases=3 Bus1=16295248.1.2.3 Bus2=-77777716295248.1.2.3 switch=y r1=0.001 x1=0.001 r0=0.001 x0=0.001 Length=0.001 units=km
New Line.RIECK$BOONE_PS0482$PS0482 phases=3 Bus1=15152210.1.2.3 Bus2=-77777715152210.1.2.3 switch=y r1=0.001 x1=0.001 r0=0.001 x0=0.001 Length=0.001 units=km
New Line.RIECK$BOONE_PS0085$PS0085 phases=3 Bus1=210360529.1.2.3 Bus2=-777777210360529.1.2.3 switch=y r1=0.001 x1=0.001 r0=0.001 x0=0.001 Length=0.001 units=km
New Line.RIECK$WILDFLOWER_PS1244$PS1244 phases=3 Bus1=196962752.1.2.3 Bus2=-777777196962752.1.2.3 switch=y r1=0.001 x1=0.001 r0=0.001 x0=0.001 Length=0.001 units=km
New Line.RIECK$BOONE_PS1862$PS1862 phases=3 Bus1=165557902.1.2.3 Bus2=-777777165557902.1.2.3 switch=y r1=0.001 x1=0.001 r0=0.001 x0=0.001 Length=0.001 units=km
New Line.RIECK$BLANCA_PS2002$PS2002 phases=3 Bus1=14799963.1.2.3 Bus2=-77777714799963.1.2.3 switch=y r1=0.001 x1=0.001 r0=0.001 x0=0.001 Length=0.001 units=km
New Line.276556571$PDRSR3884-C phases=3 Bus1=276556545.1.2.3 Bus2=276556546.1.2.3 switch=y r1=0.001 x1=0.001 r0=0.001 x0=0.001 Length=0.001 units=km
New Line.RSR3884$PDRSR3884-D phases=3 Bus1=276556522.1.2.3 Bus2=276556510.1.2.3 switch=y r1=0.001 x1=0.001 r0=0.001 x0=0.001 Length=0.001 units=km
New Line.207516849 phases=3 Bus1=207516851.1.2.3 Bus2=207516852.1.2.3 switch=y r1=0.001 x1=0.001 r0=0.001 x0=0.001 Length=0.001 units=km
New Line.243625762 phases=3 Bus1=243625764.1.2.3 Bus2=243625765.1.2.3 switch=y r1=0.001 x1=0.001 r0=0.001 x0=0.001 Length=0.001 units=km
New Line.239525775 phases=3 Bus1=239525777.1.2.3 Bus2=239525778.1.2.3 switch=y r1=0.001 x1=0.001 r0=0.001 x0=0.001 Length=0.001 units=km
New Line.276556571$PDRSR3884-D phases=3 Bus1=276556545.1.2.3 Bus2=276556521.1.2.3 switch=y r1=0.001 x1=0.001 r0=0.001 x0=0.001 Length=0.001 units=km
New Line.2167754E:PS1640 phases=3 Bus1=20759909.1.2.3 Bus2=20759908.1.2.3 switch=y r1=0.001 x1=0.001 r0=0.001 x0=0.001 Length=0.001 units=km
New Line.1293923E:1293923E phases=3 Bus1=20760155.1.2.3 Bus2=20760156.1.2.3 switch=y r1=0.001 x1=0.001 r0=0.001 x0=0.001 Length=0.001 units=km
New Line.1590342E:PDRSR3884-D phases=3 Bus1=276556521.1.2.3 Bus2=276556522.1.2.3 switch=y r1=0.001 x1=0.001 r0=0.001 x0=0.001 Length=0.001 units=km
New Line.4957442E:PS6652 phases=3 Bus1=243625658.1.2.3 Bus2=243625659.1.2.3 switch=y r1=0.001 x1=0.001 r0=0.001 x0=0.001 Length=0.001 units=km
New Line.2187819E:PS1796 phases=3 Bus1=20760006.1.2.3 Bus2=20760005.1.2.3 switch=y r1=0.001 x1=0.001 r0=0.001 x0=0.001 Length=0.001 units=km
New Line.4352257E:PS1771 phases=3 Bus1=45291640.1.2.3 Bus2=45291641.1.2.3 switch=y r1=0.001 x1=0.001 r0=0.001 x0=0.001 Length=0.001 units=km
New Line.1293944E:PS1766 phases=3 Bus1=45291666.1.2.3 Bus2=45291665.1.2.3 switch=y r1=0.001 x1=0.001 r0=0.001 x0=0.001 Length=0.001 units=km
New Line.652533E:PS1244 phases=3 Bus1=196962751.1.2.3 Bus2=196962752.1.2.3 switch=y r1=0.001 x1=0.001 r0=0.001 x0=0.001 Length=0.001 units=km enabled=false
New Line.1590320E:PS1857 phases=3 Bus1=20760034.1.2.3 Bus2=20760033.1.2.3 switch=y r1=0.001 x1=0.001 r0=0.001 x0=0.001 Length=0.001 units=km
New Line.1706349E:PS1861 phases=3 Bus1=20759980.1.2.3 Bus2=20759981.1.2.3 switch=y r1=0.001 x1=0.001 r0=0.001 x0=0.001 Length=0.001 units=km
New Line.4695810E:PS6679 phases=3 Bus1=239525653.1.2.3 Bus2=239525654.1.2.3 switch=y r1=0.001 x1=0.001 r0=0.001 x0=0.001 Length=0.001 units=km
New Line.1706344E:1706344E phases=3 Bus1=45291758.1.2.3 Bus2=45291757.1.2.3 switch=y r1=0.001 x1=0.001 r0=0.001 x0=0.001 Length=0.001 units=km
New Line.1590339E:1590339E phases=3 Bus1=20760115.1.2.3 Bus2=20760116.1.2.3 switch=y r1=0.001 x1=0.001 r0=0.001 x0=0.001 Length=0.001 units=km
New Line.2187810E:2187810E phases=3 Bus1=207516772.1.2.3 Bus2=207516777.1.2.3 switch=y r1=0.001 x1=0.001 r0=0.001 x0=0.001 Length=0.001 units=km
New Line.4957442E:PH442E phases=3 Bus1=243625689.1.2.3 Bus2=243625695.1.2.3 switch=y r1=0.001 x1=0.001 r0=0.001 x0=0.001 Length=0.001 units=km
New Line.4247606E:4247606E phases=3 Bus1=197661411.1.2.3 Bus2=197661416.1.2.3 switch=y r1=0.001 x1=0.001 r0=0.001 x0=0.001 Length=0.001 units=km
New Line.4695810E:PH810E phases=3 Bus1=239525689.1.2.3 Bus2=239525690.1.2.3 switch=y r1=0.001 x1=0.001 r0=0.001 x0=0.001 Length=0.001 units=km
New Line.5779270:P5779270-1 phases=3 Bus1=239525740.1.2.3 Bus2=239525741.1.2.3 switch=y r1=0.001 x1=0.001 r0=0.001 x0=0.001 Length=0.001 units=km
New Line.5728298:P5728298-1 phases=3 Bus1=207516805.1.2.3 Bus2=207516806.1.2.3 switch=y r1=0.001 x1=0.001 r0=0.001 x0=0.001 Length=0.001 units=km
New Line.5774049:P5774049-1 phases=3 Bus1=243625727.1.2.3 Bus2=243625728.1.2.3 switch=y r1=0.001 x1=0.001 r0=0.001 x0=0.001 Length=0.001 units=km
New Line.5707821:P5707821-1 phases=3 Bus1=197661444.1.2.3 Bus2=197661445.1.2.3 switch=y r1=0.001 x1=0.001 r0=0.001 x0=0.001 Length=0.001 units=km
New Line.2187805E:20759543 phases=3 Bus1=20759545.1.2.3 Bus2=20759546.1.2.3 switch=y r1=0.001 x1=0.001 r0=0.001 x0=0.001 Length=0.001 units=km
New Line.1991577E:20759701 phases=3 Bus1=20759703.1.2.3 Bus2=20759704.1.2.3 switch=y r1=0.001 x1=0.001 r0=0.001 x0=0.001 Length=0.001 units=km
New Line.4353944E:20759801 phases=3 Bus1=20759803.1.2.3 Bus2=20759804.1.2.3 switch=y r1=0.001 x1=0.001 r0=0.001 x0=0.001 Length=0.001 units=km
New Line.4070884E:20759281 phases=3 Bus1=20759283.1.2.3 Bus2=20759284.1.2.3 switch=y r1=0.001 x1=0.001 r0=0.001 x0=0.001 Length=0.001 units=km
New Line.1871078E:20759306 phases=3 Bus1=20759308.1.2.3 Bus2=20759309.1.2.3 switch=y r1=0.001 x1=0.001 r0=0.001 x0=0.001 Length=0.001 units=km
New Line.2316411E:20759572 phases=3 Bus1=20759574.1.2.3 Bus2=20759575.1.2.3 switch=y r1=0.001 x1=0.001 r0=0.001 x0=0.001 Length=0.001 units=km
New Line.1019189E:45291257 phases=3 Bus1=45291259.1.2.3 Bus2=45291260.1.2.3 switch=y r1=0.001 x1=0.001 r0=0.001 x0=0.001 Length=0.001 units=km
New Line.4538413E:93081133 phases=3 Bus1=93081135.1.2.3 Bus2=93081136.1.2.3 switch=y r1=0.001 x1=0.001 r0=0.001 x0=0.001 Length=0.001 units=km
New Line.4702381E:147481750 phases=3 Bus1=147481752.1.2.3 Bus2=147481753.1.2.3 switch=y r1=0.001 x1=0.001 r0=0.001 x0=0.001 Length=0.001 units=km
New Line.4700022E:166985181 phases=3 Bus1=166985183.1.2.3 Bus2=166985184.1.2.3 switch=y r1=0.001 x1=0.001 r0=0.001 x0=0.001 Length=0.001 units=km
New Line.4695153E:20759385 phases=3 Bus1=20759387.1.2.3 Bus2=20759388.1.2.3 switch=y r1=0.001 x1=0.001 r0=0.001 x0=0.001 Length=0.001 units=km
New Line.4352351E:20759776 phases=3 Bus1=20759778.1.2.3 Bus2=20759779.1.2.3 switch=y r1=0.001 x1=0.001 r0=0.001 x0=0.001 Length=0.001 units=km
New Line.1144477E:20759518 phases=3 Bus1=20759520.1.2.3 Bus2=20759521.1.2.3 switch=y r1=0.001 x1=0.001 r0=0.001 x0=0.001 Length=0.001 units=km
New Line.4099059E:20759826 phases=3 Bus1=20759828.1.2.3 Bus2=20759829.1.2.3 switch=y r1=0.001 x1=0.001 r0=0.001 x0=0.001 Length=0.001 units=km
New Line.1958295E:45290983 phases=3 Bus1=45290985.1.2.3 Bus2=45290986.1.2.3 switch=y r1=0.001 x1=0.001 r0=0.001 x0=0.001 Length=0.001 units=km
New Line.4699676E:138938561 phases=3 Bus1=138938563.1.2.3 Bus2=138938564.1.2.3 switch=y r1=0.001 x1=0.001 r0=0.001 x0=0.001 Length=0.001 units=km
New Line.1019344E:45291311 phases=3 Bus1=45291313.1.2.3 Bus2=45291314.1.2.3 switch=y r1=0.001 x1=0.001 r0=0.001 x0=0.001 Length=0.001 units=km
New Line.4352177E:45291440 phases=3 Bus1=45291442.1.2.3 Bus2=45291443.1.2.3 switch=y r1=0.001 x1=0.001 r0=0.001 x0=0.001 Length=0.001 units=km
New Line.652744E:45290688 phases=3 Bus1=45290690.1.2.3 Bus2=45290691.1.2.3 switch=y r1=0.001 x1=0.001 r0=0.001 x0=0.001 Length=0.001 units=km
New Line.4352176E:45291469 phases=3 Bus1=45291471.1.2.3 Bus2=45291472.1.2.3 switch=y r1=0.001 x1=0.001 r0=0.001 x0=0.001 Length=0.001 units=km
New Line.4352175E:207516653 phases=3 Bus1=207516655.1.2.3 Bus2=207516656.1.2.3 switch=y r1=0.001 x1=0.001 r0=0.001 x0=0.001 Length=0.001 units=km
New Line.4620978E:45291149 phases=3 Bus1=45291151.1.2.3 Bus2=45291152.1.2.3 switch=y r1=0.001 x1=0.001 r0=0.001 x0=0.001 Length=0.001 units=km
New Line.652518E:190791630 phases=3 Bus1=190791632.1.2.3 Bus2=190791633.1.2.3 switch=y r1=0.001 x1=0.001 r0=0.001 x0=0.001 Length=0.001 units=km
New Line.731205E:45290663 phases=3 Bus1=45290665.1.2.3 Bus2=45290666.1.2.3 switch=y r1=0.001 x1=0.001 r0=0.001 x0=0.001 Length=0.001 units=km
New Line.1536294E:242254000 phases=3 Bus1=242254002.1.2.3 Bus2=242254003.1.2.3 switch=y r1=0.001 x1=0.001 r0=0.001 x0=0.001 Length=0.001 units=km
New Line.1018565E:45291174 phases=3 Bus1=45291176.1.2.3 Bus2=45291177.1.2.3 switch=y r1=0.001 x1=0.001 r0=0.001 x0=0.001 Length=0.001 units=km
New Line.1018731E:20759597 phases=3 Bus1=20759599.1.2.3 Bus2=20759600.1.2.3 switch=y r1=0.001 x1=0.001 r0=0.001 x0=0.001 Length=0.001 units=km
New Line.4257005E:20759880 phases=3 Bus1=20759882.1.2.3 Bus2=20759883.1.2.3 switch=y r1=0.001 x1=0.001 r0=0.001 x0=0.001 Length=0.001 units=km
New Line.4414503E:20759851 phases=3 Bus1=20759853.1.2.3 Bus2=20759854.1.2.3 switch=y r1=0.001 x1=0.001 r0=0.001 x0=0.001 Length=0.001 units=km
New Line.1706348E:45291120 phases=3 Bus1=45291122.1.2.3 Bus2=45291123.1.2.3 switch=y r1=0.001 x1=0.001 r0=0.001 x0=0.001 Length=0.001 units=km
New Line.638524E:20759331 phases=3 Bus1=20759333.1.2.3 Bus2=20759334.1.2.3 switch=y r1=0.001 x1=0.001 r0=0.001 x0=0.001 Length=0.001 units=km
New Line.4693139E:110326237 phases=3 Bus1=110326239.1.2.3 Bus2=110326240.1.2.3 switch=y r1=0.001 x1=0.001 r0=0.001 x0=0.001 Length=0.001 units=km
New Line.2056999E:45291232 phases=3 Bus1=45291234.1.2.3 Bus2=45291235.1.2.3 switch=y r1=0.001 x1=0.001 r0=0.001 x0=0.001 Length=0.001 units=km
New Line.817975E:45290854 phases=3 Bus1=45290856.1.2.3 Bus2=45290857.1.2.3 switch=y r1=0.001 x1=0.001 r0=0.001 x0=0.001 Length=0.001 units=km
New Line.895836E:45290908 phases=3 Bus1=45290910.1.2.3 Bus2=45290911.1.2.3 switch=y r1=0.001 x1=0.001 r0=0.001 x0=0.001 Length=0.001 units=km
New Line.744075E:45291577 phases=3 Bus1=45291579.1.2.3 Bus2=45291580.1.2.3 switch=y r1=0.001 x1=0.001 r0=0.001 x0=0.001 Length=0.001 units=km
New Line.4695819E:116084004 phases=3 Bus1=116084006.1.2.3 Bus2=116084007.1.2.3 switch=y r1=0.001 x1=0.001 r0=0.001 x0=0.001 Length=0.001 units=km
New Line.1584258E:20759356 phases=3 Bus1=20759358.1.2.3 Bus2=20759359.1.2.3 switch=y r1=0.001 x1=0.001 r0=0.001 x0=0.001 Length=0.001 units=km
New Line.1706341E:45291282 phases=3 Bus1=45291284.1.2.3 Bus2=45291285.1.2.3 switch=y r1=0.001 x1=0.001 r0=0.001 x0=0.001 Length=0.001 units=km
New Line.4700021E:141891012 phases=3 Bus1=141891014.1.2.3 Bus2=141891015.1.2.3 switch=y r1=0.001 x1=0.001 r0=0.001 x0=0.001 Length=0.001 units=km
New Line.1706340E:45290796 phases=3 Bus1=45290798.1.2.3 Bus2=45290799.1.2.3 switch=y r1=0.001 x1=0.001 r0=0.001 x0=0.001 Length=0.001 units=km
New Line.4232377E:45290825 phases=3 Bus1=45290827.1.2.3 Bus2=45290828.1.2.3 switch=y r1=0.001 x1=0.001 r0=0.001 x0=0.001 Length=0.001 units=km
New Line.1893433E:45291336 phases=3 Bus1=45291338.1.2.3 Bus2=45291339.1.2.3 switch=y r1=0.001 x1=0.001 r0=0.001 x0=0.001 Length=0.001 units=km
New Line.4276448E:45291361 phases=3 Bus1=45291363.1.2.3 Bus2=45291364.1.2.3 switch=y r1=0.001 x1=0.001 r0=0.001 x0=0.001 Length=0.001 units=km
New Line.1790079E:45290933 phases=3 Bus1=45290935.1.2.3 Bus2=45290936.1.2.3 switch=y r1=0.001 x1=0.001 r0=0.001 x0=0.001 Length=0.001 units=km
New Line.4957436E:BF14952 phases=3 Bus1=243625827.1.2.3 Bus2=243625828.1.2.3 switch=y r1=0.001 x1=0.001 r0=0.001 x0=0.001 Length=0.001 units=km
New Line.2187809E:BF00054 phases=3 Bus1=259968272.1.2.3 Bus2=259968273.1.2.3 switch=y r1=0.001 x1=0.001 r0=0.001 x0=0.001 Length=0.001 units=km
New Line.1259307E:BF12929 phases=3 Bus1=207516726.1.2.3 Bus2=207516727.1.2.3 switch=y r1=0.001 x1=0.001 r0=0.001 x0=0.001 Length=0.001 units=km
New Line.4247601E:BF12623 phases=3 Bus1=196176761.1.2.3 Bus2=196176762.1.2.3 switch=y r1=0.001 x1=0.001 r0=0.001 x0=0.001 Length=0.001 units=km
New Line.690656E:BF14733 phases=3 Bus1=243484117.1.2.3 Bus2=243484118.1.2.3 switch=y r1=0.001 x1=0.001 r0=0.001 x0=0.001 Length=0.001 units=km
New Line.CAB_2187805E:2187805E phases=3 Bus1=20759563.1.2.3 Bus2=20759545.1.2.3 switch=y r1=0.001 x1=0.001 r0=0.001 x0=0.001 Length=0.001 units=km
New Line.CAB_1991577E:1991577E phases=3 Bus1=20759719.1.2.3 Bus2=20759703.1.2.3 switch=y r1=0.001 x1=0.001 r0=0.001 x0=0.001 Length=0.001 units=km
New Line.CAB_1144477E:1144477E phases=3 Bus1=20759536.1.2.3 Bus2=20759520.1.2.3 switch=y r1=0.001 x1=0.001 r0=0.001 x0=0.001 Length=0.001 units=km
New Line.CAB_1019189E:1019189E phases=3 Bus1=45291275.1.2.3 Bus2=45291259.1.2.3 switch=y r1=0.001 x1=0.001 r0=0.001 x0=0.001 Length=0.001 units=km
New Line.CAB_4695153E:4695153E phases=3 Bus1=20759403.1.2.3 Bus2=20759387.1.2.3 switch=y r1=0.001 x1=0.001 r0=0.001 x0=0.001 Length=0.001 units=km
New Line.CAB_1019344E:1019344E phases=3 Bus1=45291329.1.2.3 Bus2=45291313.1.2.3 switch=y r1=0.001 x1=0.001 r0=0.001 x0=0.001 Length=0.001 units=km
New Line.CAB_4352175E:4352175E phases=3 Bus1=207516672.1.2.3 Bus2=207516655.1.2.3 switch=y r1=0.001 x1=0.001 r0=0.001 x0=0.001 Length=0.001 units=km
New Line.CAB_1018565E:1018565E phases=3 Bus1=45291194.1.2.3 Bus2=45291176.1.2.3 switch=y r1=0.001 x1=0.001 r0=0.001 x0=0.001 Length=0.001 units=km
New Line.CAB_4695819E:4695819E phases=3 Bus1=116083999.1.2.3 Bus2=116084006.1.2.3 switch=y r1=0.001 x1=0.001 r0=0.001 x0=0.001 Length=0.001 units=km
New Line.CAB_1584258E:1584258E phases=3 Bus1=20759376.1.2.3 Bus2=20759358.1.2.3 switch=y r1=0.001 x1=0.001 r0=0.001 x0=0.001 Length=0.001 units=km
New Line.CAB_1706341E:1706341E phases=3 Bus1=45291302.1.2.3 Bus2=45291284.1.2.3 switch=y r1=0.001 x1=0.001 r0=0.001 x0=0.001 Length=0.001 units=km
New Line.CAB_4700021E:4700021E phases=3 Bus1=45291570.1.2.3 Bus2=141891014.1.2.3 switch=y r1=0.001 x1=0.001 r0=0.001 x0=0.001 Length=0.001 units=km
New Line.CAB_1706340E:1706340E phases=3 Bus1=45290816.1.2.3 Bus2=45290798.1.2.3 switch=y r1=0.001 x1=0.001 r0=0.001 x0=0.001 Length=0.001 units=km
New Line.CAB_4353944E:4353944E phases=3 Bus1=20759819.1.2.3 Bus2=20759803.1.2.3 switch=y r1=0.001 x1=0.001 r0=0.001 x0=0.001 Length=0.001 units=km
New Line.CAB_4070884E:4070884E phases=3 Bus1=20759299.1.2.3 Bus2=20759283.1.2.3 switch=y r1=0.001 x1=0.001 r0=0.001 x0=0.001 Length=0.001 units=km
New Line.CAB_1871078E:1871078E phases=3 Bus1=20759324.1.2.3 Bus2=20759308.1.2.3 switch=y r1=0.001 x1=0.001 r0=0.001 x0=0.001 Length=0.001 units=km
New Line.CAB_2316411E:2316411E phases=3 Bus1=20759590.1.2.3 Bus2=20759574.1.2.3 switch=y r1=0.001 x1=0.001 r0=0.001 x0=0.001 Length=0.001 units=km
New Line.CAB_4352351E:4352351E phases=3 Bus1=20759794.1.2.3 Bus2=20759778.1.2.3 switch=y r1=0.001 x1=0.001 r0=0.001 x0=0.001 Length=0.001 units=km
New Line.CAB_4538413E:4538413E phases=3 Bus1=93081114.1.2.3 Bus2=93081135.1.2.3 switch=y r1=0.001 x1=0.001 r0=0.001 x0=0.001 Length=0.001 units=km
New Line.CAB_4702381E:4702381E phases=3 Bus1=147481771.1.2.3 Bus2=147481752.1.2.3 switch=y r1=0.001 x1=0.001 r0=0.001 x0=0.001 Length=0.001 units=km
New Line.CAB_4700022E:4700022E phases=3 Bus1=45291084.1.2.3 Bus2=166985183.1.2.3 switch=y r1=0.001 x1=0.001 r0=0.001 x0=0.001 Length=0.001 units=km
New Line.CAB_1958295E:1958295E phases=3 Bus1=45291003.1.2.3 Bus2=45290985.1.2.3 switch=y r1=0.001 x1=0.001 r0=0.001 x0=0.001 Length=0.001 units=km
New Line.CAB_4099059E:4099059E phases=3 Bus1=20759844.1.2.3 Bus2=20759828.1.2.3 switch=y r1=0.001 x1=0.001 r0=0.001 x0=0.001 Length=0.001 units=km
New Line.CAB_1018731E:1018731E phases=3 Bus1=20759615.1.2.3 Bus2=20759599.1.2.3 switch=y r1=0.001 x1=0.001 r0=0.001 x0=0.001 Length=0.001 units=km
New Line.CAB_4699676E:4699676E phases=3 Bus1=138938582.1.2.3 Bus2=138938563.1.2.3 switch=y r1=0.001 x1=0.001 r0=0.001 x0=0.001 Length=0.001 units=km
New Line.CAB_4352177E:4352177E phases=3 Bus1=45291460.1.2.3 Bus2=45291442.1.2.3 switch=y r1=0.001 x1=0.001 r0=0.001 x0=0.001 Length=0.001 units=km
New Line.CAB_652744E:652744E phases=3 Bus1=45290706.1.2.3 Bus2=45290690.1.2.3 switch=y r1=0.001 x1=0.001 r0=0.001 x0=0.001 Length=0.001 units=km
New Line.CAB_4352176E:4352176E phases=3 Bus1=45291489.1.2.3 Bus2=45291471.1.2.3 switch=y r1=0.001 x1=0.001 r0=0.001 x0=0.001 Length=0.001 units=km
New Line.CAB_4620978E:4620978E phases=3 Bus1=45291167.1.2.3 Bus2=45291151.1.2.3 switch=y r1=0.001 x1=0.001 r0=0.001 x0=0.001 Length=0.001 units=km
New Line.CAB_652518E:652518E phases=3 Bus1=190791651.1.2.3 Bus2=190791632.1.2.3 switch=y r1=0.001 x1=0.001 r0=0.001 x0=0.001 Length=0.001 units=km
New Line.CAB_731205E:731205E phases=3 Bus1=45290681.1.2.3 Bus2=45290665.1.2.3 switch=y r1=0.001 x1=0.001 r0=0.001 x0=0.001 Length=0.001 units=km
New Line.CAB_1536294E:1536294E phases=3 Bus1=242254019.1.2.3 Bus2=242254002.1.2.3 switch=y r1=0.001 x1=0.001 r0=0.001 x0=0.001 Length=0.001 units=km
New Line.CAB_4693139E:4693139E phases=3 Bus1=110326258.1.2.3 Bus2=110326239.1.2.3 switch=y r1=0.001 x1=0.001 r0=0.001 x0=0.001 Length=0.001 units=km
New Line.CAB_4257005E:4257005E phases=3 Bus1=20759898.1.2.3 Bus2=20759882.1.2.3 switch=y r1=0.001 x1=0.001 r0=0.001 x0=0.001 Length=0.001 units=km
New Line.CAB_4414503E:4414503E phases=3 Bus1=20759871.1.2.3 Bus2=20759853.1.2.3 switch=y r1=0.001 x1=0.001 r0=0.001 x0=0.001 Length=0.001 units=km
New Line.CAB_1706348E:1706348E phases=3 Bus1=45291140.1.2.3 Bus2=45291122.1.2.3 switch=y r1=0.001 x1=0.001 r0=0.001 x0=0.001 Length=0.001 units=km
New Line.CAB_638524E:638524E phases=3 Bus1=20759349.1.2.3 Bus2=20759333.1.2.3 switch=y r1=0.001 x1=0.001 r0=0.001 x0=0.001 Length=0.001 units=km
New Line.CAB_2056999E:2056999E phases=3 Bus1=45291250.1.2.3 Bus2=45291234.1.2.3 switch=y r1=0.001 x1=0.001 r0=0.001 x0=0.001 Length=0.001 units=km
New Line.CAB_817975E:817975E phases=3 Bus1=45290874.1.2.3 Bus2=45290856.1.2.3 switch=y r1=0.001 x1=0.001 r0=0.001 x0=0.001 Length=0.001 units=km
New Line.CAB_895836E:895836E phases=3 Bus1=45290926.1.2.3 Bus2=45290910.1.2.3 switch=y r1=0.001 x1=0.001 r0=0.001 x0=0.001 Length=0.001 units=km
New Line.CAB_744075E:744075E phases=3 Bus1=45291595.1.2.3 Bus2=45291579.1.2.3 switch=y r1=0.001 x1=0.001 r0=0.001 x0=0.001 Length=0.001 units=km
New Line.CAB_4232377E:4232377E phases=3 Bus1=45290845.1.2.3 Bus2=45290827.1.2.3 switch=y r1=0.001 x1=0.001 r0=0.001 x0=0.001 Length=0.001 units=km
New Line.CAB_1893433E:1893433E phases=3 Bus1=45291354.1.2.3 Bus2=45291338.1.2.3 switch=y r1=0.001 x1=0.001 r0=0.001 x0=0.001 Length=0.001 units=km
New Line.CAB_4276448E:4276448E phases=3 Bus1=45291379.1.2.3 Bus2=45291363.1.2.3 switch=y r1=0.001 x1=0.001 r0=0.001 x0=0.001 Length=0.001 units=km
New Line.CAB_1790079E:1790079E phases=3 Bus1=45290951.1.2.3 Bus2=45290935.1.2.3 switch=y r1=0.001 x1=0.001 r0=0.001 x0=0.001 Length=0.001 units=km
New Line.1590342E:RSR3884 phases=3 Bus1=276556510.1.2.3 Bus2=-777777276556510.1.2.3 switch=y r1=0.001 x1=0.001 r0=0.001 x0=0.001 Length=0.001 units=km
New Line.1991573E:1991573E phases=3 Bus1=206739493.1.2.3 Bus2=206739494.1.2.3 switch=y r1=0.001 x1=0.001 r0=0.001 x0=0.001 Length=0.001 units=km
New Line.2187801E:2187801E phases=3 Bus1=20759935.1.2.3 Bus2=20759934.1.2.3 switch=y r1=0.001 x1=0.001 r0=0.001 x0=0.001 Length=0.001 units=km
New Line.1958294E:1958294E phases=3 Bus1=45291691.1.2.3 Bus2=45291690.1.2.3 switch=y r1=0.001 x1=0.001 r0=0.001 x0=0.001 Length=0.001 units=km
New Line.1706330E:1706330E phases=3 Bus1=45291717.1.2.3 Bus2=45291718.1.2.3 switch=y r1=0.001 x1=0.001 r0=0.001 x0=0.001 Length=0.001 units=km
New Line.1706316E:1706316E phases=3 Bus1=45291730.1.2.3 Bus2=45291731.1.2.3 switch=y r1=0.001 x1=0.001 r0=0.001 x0=0.001 Length=0.001 units=km
New Line.652521E:652521ET phases=3 Bus1=45291801.1.2.3 Bus2=45291800.1.2.3 switch=y r1=0.001 x1=0.001 r0=0.001 x0=0.001 Length=0.001 units=km
New Line.1706340E:1706340ET1 phases=3 Bus1=45291791.1.2.3 Bus2=45291790.1.2.3 switch=y r1=0.001 x1=0.001 r0=0.001 x0=0.001 Length=0.001 units=km

! Loads
New Load.1018731E_0 Bus1=-99999920759600.1.2 phases=1 kV=0.069282 kW=0 kvar=0 model=1
New Load.1018731E_1 Bus1=-99999920759600.2.3 phases=1 kV=0.069282 kW=0 kvar=0 model=1
New Load.1018731E_2 Bus1=-99999920759600.3.1 phases=1 kV=0.069282 kW=0 kvar=0 model=1
New Load.5774049_0 Bus1=-999999243625728.1.0 phases=1 kV=0.159926 kW=0 kvar=0 model=1
New Load.5774049_1 Bus1=-999999243625728.2.0 phases=1 kV=0.159926 kW=0 kvar=0 model=1
New Load.5774049_2 Bus1=-999999243625728.3.0 phases=1 kV=0.159926 kW=0 kvar=0 model=1
New Load.4414503E_0 Bus1=-99999920759854.1.2 phases=1 kV=0.069282 kW=0 kvar=0 model=1
New Load.4414503E_1 Bus1=-99999920759854.2.3 phases=1 kV=0.069282 kW=0 kvar=0 model=1
New Load.4414503E_2 Bus1=-99999920759854.3.1 phases=1 kV=0.069282 kW=0 kvar=0 model=1
New Load.1706348E_0 Bus1=-99999945291123.1.2 phases=1 kV=0.069282 kW=0 kvar=0 model=1
New Load.1706348E_1 Bus1=-99999945291123.2.3 phases=1 kV=0.069282 kW=0 kvar=0 model=1
New Load.1706348E_2 Bus1=-99999945291123.3.1 phases=1 kV=0.069282 kW=0 kvar=0 model=1
New Load.638524E_0 Bus1=-99999920759334.1.0 phases=1 kV=0.069282 kW=0 kvar=0 model=1
New Load.638524E_1 Bus1=-99999920759334.2.0 phases=1 kV=0.069282 kW=0 kvar=0 model=1
New Load.5728298_0 Bus1=-999999207516806.1.0 phases=1 kV=0.159926 kW=0 kvar=0 model=1
New Load.5728298_1 Bus1=-999999207516806.2.0 phases=1 kV=0.159926 kW=0 kvar=0 model=1
New Load.5728298_2 Bus1=-999999207516806.3.0 phases=1 kV=0.159926 kW=0 kvar=0 model=1
New Load.4257005E_0 Bus1=-99999920759883.1.0 phases=1 kV=0.159926 kW=0 kvar=0 model=1
New Load.4257005E_1 Bus1=-99999920759883.2.0 phases=1 kV=0.159926 kW=0 kvar=0 model=1
New Load.4257005E_2 Bus1=-99999920759883.3.0 phases=1 kV=0.159926 kW=0 kvar=0 model=1
New Load.4693139E_0 Bus1=-999999110326240.1.0 phases=1 kV=0.159926 kW=0 kvar=0 model=1
New Load.4693139E_1 Bus1=-999999110326240.2.0 phases=1 kV=0.159926 kW=0 kvar=0 model=1
New Load.4693139E_2 Bus1=-999999110326240.3.0 phases=1 kV=0.159926 kW=0 kvar=0 model=1
New Load.2056999E_0 Bus1=-99999945291235.1.0 phases=1 kV=0.159926 kW=0 kvar=0 model=1
New Load.2056999E_1 Bus1=-99999945291235.2.0 phases=1 kV=0.159926 kW=0 kvar=0 model=1
New Load.2056999E_2 Bus1=-99999945291235.3.0 phases=1 kV=0.159926 kW=0 kvar=0 model=1
New Load.4699676E_0 Bus1=-999999138938564.1.0 phases=1 kV=0.159926 kW=0 kvar=0 model=1
New Load.4699676E_1 Bus1=-999999138938564.2.0 phases=1 kV=0.159926 kW=0 kvar=0 model=1
New Load.4699676E_2 Bus1=-999999138938564.3.0 phases=1 kV=0.159926 kW=0 kvar=0 model=1
New Load.4276448E_0 Bus1=-99999945291364.1.2 phases=1 kV=0.069282 kW=0 kvar=0 model=1
New Load.4276448E_1 Bus1=-99999945291364.2.3 phases=1 kV=0.069282 kW=0 kvar=0 model=1
New Load.4276448E_2 Bus1=-99999945291364.3.1 phases=1 kV=0.069282 kW=0 kvar=0 model=1
New Load.1958295E_0 Bus1=-99999945290986.1.2 phases=1 kV=0.069282 kW=0 kvar=0 model=1
New Load.1958295E_1 Bus1=-99999945290986.2.3 phases=1 kV=0.069282 kW=0 kvar=0 model=1
New Load.1958295E_2 Bus1=-99999945290986.3.1 phases=1 kV=0.069282 kW=0 kvar=0 model=1
New Load.731205E_0 Bus1=-99999945290666.1.0 phases=1 kV=0.159926 kW=0 kvar=0 model=1
New Load.731205E_1 Bus1=-99999945290666.2.0 phases=1 kV=0.159926 kW=0 kvar=0 model=1
New Load.731205E_2 Bus1=-99999945290666.3.0 phases=1 kV=0.159926 kW=0 kvar=0 model=1
New Load.652518E_0 Bus1=-999999190791633.1.0 phases=1 kV=0.159926 kW=0 kvar=0 model=1
New Load.652518E_1 Bus1=-999999190791633.2.0 phases=1 kV=0.159926 kW=0 kvar=0 model=1
New Load.652518E_2 Bus1=-999999190791633.3.0 phases=1 kV=0.159926 kW=0 kvar=0 model=1
New Load.1536294E_0 Bus1=-999999242254003.1.2 phases=1 kV=0.069282 kW=0 kvar=0 model=1
New Load.1536294E_1 Bus1=-999999242254003.2.3 phases=1 kV=0.069282 kW=0 kvar=0 model=1
New Load.1536294E_2 Bus1=-999999242254003.3.1 phases=1 kV=0.069282 kW=0 kvar=0 model=1
New Load.4538413E_0 Bus1=-99999993081136.1.0 phases=1 kV=0.159926 kW=0 kvar=0 model=1
New Load.4538413E_1 Bus1=-99999993081136.2.0 phases=1 kV=0.159926 kW=0 kvar=0 model=1
New Load.1019189E_0 Bus1=-99999945291260.1.0 phases=1 kV=0.159926 kW=0 kvar=0 model=1
New Load.1019189E_1 Bus1=-99999945291260.2.0 phases=1 kV=0.159926 kW=0 kvar=0 model=1
New Load.1019189E_2 Bus1=-99999945291260.3.0 phases=1 kV=0.159926 kW=0 kvar=0 model=1
New Load.652744E_0 Bus1=-99999945290691.1.0 phases=1 kV=0.159926 kW=0 kvar=0 model=1
New Load.652744E_1 Bus1=-99999945290691.2.0 phases=1 kV=0.159926 kW=0 kvar=0 model=1
New Load.652744E_2 Bus1=-99999945290691.3.0 phases=1 kV=0.159926 kW=0 kvar=0 model=1
New Load.4352176E_0 Bus1=-99999945291472.1.0 phases=1 kV=0.069282 kW=0 kvar=0 model=1
New Load.4352176E_1 Bus1=-99999945291472.2.0 phases=1 kV=0.069282 kW=0 kvar=0 model=1
New Load.1706340E_0 Bus1=-99999945290799.3.0 phases=1 kV=0.069282 kW=0 kvar=0 model=1
New Load.1706340E_1 Bus1=-99999945290799.1.0 phases=1 kV=0.069282 kW=0 kvar=0 model=1
New Load.1991577E_0 Bus1=-99999920759704.2.0 phases=1 kV=0.069282 kW=0 kvar=0 model=1
New Load.1991577E_1 Bus1=-99999920759704.3.0 phases=1 kV=0.069282 kW=0 kvar=0 model=1
New Load.4695819E_0 Bus1=-999999116084007.1.0 phases=1 kV=0.159926 kW=0 kvar=0 model=1
New Load.4695819E_1 Bus1=-999999116084007.2.0 phases=1 kV=0.159926 kW=0 kvar=0 model=1
New Load.4695819E_2 Bus1=-999999116084007.3.0 phases=1 kV=0.159926 kW=0 kvar=0 model=1
New Load.1584258E_0 Bus1=-99999920759359.3.0 phases=1 kV=0.069282 kW=0 kvar=0 model=1
New Load.1584258E_1 Bus1=-99999920759359.1.0 phases=1 kV=0.069282 kW=0 kvar=0 model=1
New Load.1706341E_0 Bus1=-99999945291285.2.0 phases=1 kV=0.069282 kW=0 kvar=0 model=1
New Load.1706341E_1 Bus1=-99999945291285.3.0 phases=1 kV=0.069282 kW=0 kvar=0 model=1
New Load.4353944E_0 Bus1=-99999920759804.1.0 phases=1 kV=0.159926 kW=0 kvar=0 model=1
New Load.4353944E_1 Bus1=-99999920759804.2.0 phases=1 kV=0.159926 kW=0 kvar=0 model=1
New Load.4353944E_2 Bus1=-99999920759804.3.0 phases=1 kV=0.159926 kW=0 kvar=0 model=1
New Load.1871078E_0 Bus1=-99999920759309.1.0 phases=1 kV=0.159926 kW=0 kvar=0 model=1
New Load.1871078E_1 Bus1=-99999920759309.2.0 phases=1 kV=0.159926 kW=0 kvar=0 model=1
New Load.1871078E_2 Bus1=-99999920759309.3.0 phases=1 kV=0.159926 kW=0 kvar=0 model=1
New Load.4070884E_0 Bus1=-99999920759284.1.0 phases=1 kV=0.159926 kW=0 kvar=0 model=1
New Load.4070884E_1 Bus1=-99999920759284.2.0 phases=1 kV=0.159926 kW=0 kvar=0 model=1
New Load.4070884E_2 Bus1=-99999920759284.3.0 phases=1 kV=0.159926 kW=0 kvar=0 model=1
New Load.4352351E_0 Bus1=-99999920759779.1.0 phases=1 kV=0.159926 kW=0 kvar=0 model=1
New Load.4352351E_1 Bus1=-99999920759779.2.0 phases=1 kV=0.159926 kW=0 kvar=0 model=1
New Load.4352351E_2 Bus1=-99999920759779.3.0 phases=1 kV=0.159926 kW=0 kvar=0 model=1
New Load.2316411E_0 Bus1=-99999920759575.2.0 phases=1 kV=0.069282 kW=0 kvar=0 model=1
New Load.2316411E_1 Bus1=-99999920759575.3.0 phases=1 kV=0.069282 kW=0 kvar=0 model=1
New Load.4099059E_0 Bus1=-99999920759829.1.0 phases=1 kV=0.159926 kW=0 kvar=0 model=1
New Load.4099059E_1 Bus1=-99999920759829.2.0 phases=1 kV=0.159926 kW=0 kvar=0 model=1
New Load.4099059E_2 Bus1=-99999920759829.3.0 phases=1 kV=0.159926 kW=0 kvar=0 model=1
New Load.1144477E_0 Bus1=-99999920759521.1.2 phases=1 kV=0.069282 kW=0 kvar=0 model=1
New Load.1144477E_1 Bus1=-99999920759521.2.3 phases=1 kV=0.069282 kW=0 kvar=0 model=1
New Load.1144477E_2 Bus1=-99999920759521.3.1 phases=1 kV=0.069282 kW=0 kvar=0 model=1
New Load.1893433E_0 Bus1=-99999945291339.1.2 phases=1 kV=0.069282 kW=0 kvar=0 model=1
New Load.1893433E_1 Bus1=-99999945291339.2.3 phases=1 kV=0.069282 kW=0 kvar=0 model=1
New Load.1893433E_2 Bus1=-99999945291339.3.1 phases=1 kV=0.069282 kW=0 kvar=0 model=1
New Load.4232377E_0 Bus1=-99999945290828.1.0 phases=1 kV=0.159926 kW=0 kvar=0 model=1
New Load.4232377E_1 Bus1=-99999945290828.2.0 phases=1 kV=0.159926 kW=0 kvar=0 model=1
New Load.4232377E_2 Bus1=-99999945290828.3.0 phases=1 kV=0.159926 kW=0 kvar=0 model=1
New Load.744075E_0 Bus1=-99999945291580.1.0 phases=1 kV=0.159926 kW=0 kvar=0 model=1
New Load.744075E_1 Bus1=-99999945291580.2.0 phases=1 kV=0.159926 kW=0 kvar=0 model=1
New Load.744075E_2 Bus1=-99999945291580.3.0 phases=1 kV=0.159926 kW=0 kvar=0 model=1
New Load.895836E_0 Bus1=-99999945290911.1.2 phases=1 kV=0.069282 kW=0 kvar=0 model=1
New Load.895836E_1 Bus1=-99999945290911.2.3 phases=1 kV=0.069282 kW=0 kvar=0 model=1
New Load.895836E_2 Bus1=-99999945290911.3.1 phases=1 kV=0.069282 kW=0 kvar=0 model=1
New Load.5707821_0 Bus1=-999999197661445.1.0 phases=1 kV=0.159926 kW=0 kvar=0 model=1
New Load.5707821_1 Bus1=-999999197661445.2.0 phases=1 kV=0.159926 kW=0 kvar=0 model=1
New Load.5707821_2 Bus1=-999999197661445.3.0 phases=1 kV=0.159926 kW=0 kvar=0 model=1
New Load.817975E_0 Bus1=-99999945290857.2.0 phases=1 kV=0.069282 kW=0 kvar=0 model=1
New Load.817975E_1 Bus1=-99999945290857.3.0 phases=1 kV=0.069282 kW=0 kvar=0 model=1
New Load.2187805E_0 Bus1=-99999920759546.1.2 phases=1 kV=0.069282 kW=0 kvar=0 model=1
New Load.2187805E_1 Bus1=-99999920759546.2.3 phases=1 kV=0.069282 kW=0 kvar=0 model=1
New Load.2187805E_2 Bus1=-99999920759546.3.1 phases=1 kV=0.069282 kW=0 kvar=0 model=1
New Load.4352177E_0 Bus1=-99999945291443.3.0 phases=1 kV=0.069282 kW=0 kvar=0 model=1
New Load.4352177E_1 Bus1=-99999945291443.1.0 phases=1 kV=0.069282 kW=0 kvar=0 model=1
New Load.1019344E_0 Bus1=-99999945291314.1.2 phases=1 kV=0.069282 kW=0 kvar=0 model=1
New Load.1019344E_1 Bus1=-99999945291314.2.3 phases=1 kV=0.069282 kW=0 kvar=0 model=1
New Load.1019344E_2 Bus1=-99999945291314.3.1 phases=1 kV=0.069282 kW=0 kvar=0 model=1
New Load.1790079E_0 Bus1=-99999945290936.1.2 phases=1 kV=0.069282 kW=0 kvar=0 model=1
New Load.1790079E_1 Bus1=-99999945290936.2.3 phases=1 kV=0.069282 kW=0 kvar=0 model=1
New Load.1790079E_2 Bus1=-99999945290936.3.1 phases=1 kV=0.069282 kW=0 kvar=0 model=1
New Load.1018565E_0 Bus1=-99999945291177.1.2 phases=1 kV=0.069282 kW=0 kvar=0 model=1
New Load.1018565E_1 Bus1=-99999945291177.2.3 phases=1 kV=0.069282 kW=0 kvar=0 model=1
New Load.1018565E_2 Bus1=-99999945291177.3.1 phases=1 kV=0.069282 kW=0 kvar=0 model=1
New Load.4700022E_0 Bus1=-999999166985184.1.0 phases=1 kV=0.159926 kW=0 kvar=0 model=1
New Load.4700022E_1 Bus1=-999999166985184.2.0 phases=1 kV=0.159926 kW=0 kvar=0 model=1
New Load.4700022E_2 Bus1=-999999166985184.3.0 phases=1 kV=0.159926 kW=0 kvar=0 model=1
New Load.4702381E_0 Bus1=-999999147481753.1.0 phases=1 kV=0.159926 kW=0 kvar=0 model=1
New Load.4702381E_1 Bus1=-999999147481753.2.0 phases=1 kV=0.159926 kW=0 kvar=0 model=1
New Load.4702381E_2 Bus1=-999999147481753.3.0 phases=1 kV=0.159926 kW=0 kvar=0 model=1
New Load.5779270_0 Bus1=-999999239525741.1.0 phases=1 kV=0.159926 kW=0 kvar=0 model=1
New Load.5779270_1 Bus1=-999999239525741.2.0 phases=1 kV=0.159926 kW=0 kvar=0 model=1
New Load.5779270_2 Bus1=-999999239525741.3.0 phases=1 kV=0.159926 kW=0 kvar=0 model=1
New Load.4700021E_0 Bus1=-999999141891015.1.0 phases=1 kV=0.159926 kW=0 kvar=0 model=1
New Load.4700021E_1 Bus1=-999999141891015.2.0 phases=1 kV=0.159926 kW=0 kvar=0 model=1
New Load.4700021E_2 Bus1=-999999141891015.3.0 phases=1 kV=0.159926 kW=0 kvar=0 model=1
New Load.4695153E_0 Bus1=-99999920759388.1.0 phases=1 kV=0.159926 kW=0 kvar=0 model=1
New Load.4695153E_1 Bus1=-99999920759388.2.0 phases=1 kV=0.159926 kW=0 kvar=0 model=1
New Load.4695153E_2 Bus1=-99999920759388.3.0 phases=1 kV=0.159926 kW=0 kvar=0 model=1
New Load.4620978E_0 Bus1=-99999945291152.1.0 phases=1 kV=0.069282 kW=0 kvar=0 model=1
New Load.4620978E_1 Bus1=-99999945291152.2.0 phases=1 kV=0.069282 kW=0 kvar=0 model=1
New Load.4352175E_0 Bus1=-999999207516656.2.0 phases=1 kV=0.069282 kW=0 kvar=0 model=1
New Load.4352175E_1 Bus1=-999999207516656.3.0 phases=1 kV=0.069282 kW=0 kvar=0 model=1

! Generators
New Generator.SCE-90003_PHOTOVOLTAIC_0 Bus1=-999999147481753.1.0 phases=1 kV=0.159926 kW=0 kvar=0 model=7
New Generator.SCE-90003_PHOTOVOLTAIC_1 Bus1=-999999147481753.2.0 phases=1 kV=0.159926 kW=0 kvar=0 model=7
New Generator.SCE-90003_PHOTOVOLTAIC_2 Bus1=-999999147481753.3.0 phases=1 kV=0.159926 kW=0 kvar=0 model=7
New Generator.NST-45627_PHOTOVOLTAIC_0 Bus1=-99999945290857.2.0 phases=1 kV=0.069282 kW=0 kvar=0 model=7
New Generator.NST-45627_PHOTOVOLTAIC_1 Bus1=-99999945290857.3.0 phases=1 kV=0.069282 kW=0 kvar=0 model=7
New Generator.SBP-67001_PHOTOVOLTAIC_0 Bus1=-99999945290986.1.2 phases=1 kV=0.069282 kW=0 kvar=0 model=7
New Generator.SBP-67001_PHOTOVOLTAIC_1 Bus1=-99999945290986.2.3 phases=1 kV=0.069282 kW=0 kvar=0 model=7
New Generator.SBP-67001_PHOTOVOLTAIC_2 Bus1=-99999945290986.3.1 phases=1 kV=0.069282 kW=0 kvar=0 model=7

! Transformers
New Transformer.293588A82DEEEE34E0637F61810A7CE3_0_0 phases=1 windings=2 xhl=0.5 %R=0.353554 %imag=1e-06 %noloadloss=0
~ wdg=1 bus=207516656.2.0 kV=6.9282 kVA=12.5 conn=wye
~ wdg=2 bus=-999999207516656.2.0 kV=0.069282 kVA=12.5 conn=wye
New Transformer.293588A82DEEEE34E0637F61810A7CE3_0_1 phases=1 windings=2 xhl=0.5 %R=0.353554 %imag=1e-06 %noloadloss=0
~ wdg=1 bus=207516656.3.0 kV=6.9282 kVA=12.5 conn=wye
~ wdg=2 bus=-999999207516656.3.0 kV=0.069282 kVA=12.5 conn=wye
New Transformer.293588A89076EE34E0637F61810A7CE3_1_0 phases=1 windings=2 xhl=0.5 %R=0.353554 %imag=1e-06 %noloadloss=0
~ wdg=1 bus=20759575.2.0 kV=6.9282 kVA=5 conn=wye
~ wdg=2 bus=-99999920759575.2.0 kV=0.069282 kVA=5 conn=wye
New Transformer.293588A89076EE34E0637F61810A7CE3_1_1 phases=1 windings=2 xhl=0.5 %R=0.353554 %imag=1e-06 %noloadloss=0
~ wdg=1 bus=20759575.3.0 kV=6.9282 kVA=5 conn=wye
~ wdg=2 bus=-99999920759575.3.0 kV=0.069282 kVA=5 conn=wye
New Transformer.293588A952DFEE34E0637F61810A7CE3_2_0 phases=1 windings=2 xhl=0.5 %R=0.353554 %imag=1e-06 %noloadloss=0
~ wdg=1 bus=93081136.1.0 kV=6.9282 kVA=12.5 conn=wye
~ wdg=2 bus=-99999993081136.1.0 kV=0.159926 kVA=12.5 conn=wye
New Transformer.293588A952DFEE34E0637F61810A7CE3_2_1 phases=1 windings=2 xhl=0.5 %R=0.353554 %imag=1e-06 %noloadloss=0
~ wdg=1 bus=93081136.2.0 kV=6.9282 kVA=12.5 conn=wye
~ wdg=2 bus=-99999993081136.2.0 kV=0.159926 kVA=12.5 conn=wye
New Transformer.293588B3A2AFEE34E0637F61810A7CE3_3_0 phases=1 windings=2 xhl=0.5 %R=0.353554 %imag=1e-06 %noloadloss=0
~ wdg=1 bus=239525741.1.2 kV=12 kVA=100 conn=delta
~ wdg=2 bus=-999999239525741.1.0 kV=0.159926 kVA=100 conn=wye
New Transformer.293588B3A2AFEE34E0637F61810A7CE3_3_1 phases=1 windings=2 xhl=0.5 %R=0.353554 %imag=1e-06 %noloadloss=0
~ wdg=1 bus=239525741.2.3 kV=12 kVA=100 conn=delta
~ wdg=2 bus=-999999239525741.2.0 kV=0.159926 kVA=100 conn=wye
New Transformer.293588B3A2AFEE34E0637F61810A7CE3_3_2 phases=1 windings=2 xhl=0.5 %R=0.353554 %imag=1e-06 %noloadloss=0
~ wdg=1 bus=239525741.3.1 kV=12 kVA=100 conn=delta
~ wdg=2 bus=-999999239525741.3.0 kV=0.159926 kVA=100 conn=wye
New Transformer.293588A54046EE34E0637F61810A7CE3_4_0 phases=1 windings=2 xhl=0.5 %R=0.353554 %imag=1e-06 %noloadloss=0
~ wdg=1 bus=45291443.3.0 kV=6.9282 kVA=12.5 conn=wye
~ wdg=2 bus=-99999945291443.3.0 kV=0.069282 kVA=12.5 conn=wye
New Transformer.293588A54046EE34E0637F61810A7CE3_4_1 phases=1 windings=2 xhl=0.5 %R=0.353554 %imag=1e-06 %noloadloss=0
~ wdg=1 bus=45291443.1.0 kV=6.9282 kVA=12.5 conn=wye
~ wdg=2 bus=-99999945291443.1.0 kV=0.069282 kVA=12.5 conn=wye
New Transformer.293588A54047EE34E0637F61810A7CE3_5_0 phases=1 windings=2 xhl=0.5 %R=0.353554 %imag=1e-06 %noloadloss=0
~ wdg=1 bus=45291472.1.0 kV=6.9282 kVA=18.75 conn=wye
~ wdg=2 bus=-99999945291472.1.0 kV=0.069282 kVA=18.75 conn=wye
New Transformer.293588A54047EE34E0637F61810A7CE3_5_1 phases=1 windings=2 xhl=0.5 %R=0.353554 %imag=1e-06 %noloadloss=0
~ wdg=1 bus=45291472.2.0 kV=6.9282 kVA=18.75 conn=wye
~ wdg=2 bus=-99999945291472.2.0 kV=0.069282 kVA=18.75 conn=wye
New Transformer.293588A53F66EE34E0637F61810A7CE3_6_0 phases=1 windings=2 xhl=0.5 %R=0.353554 %imag=1e-06 %noloadloss=0
~ wdg=1 bus=45291152.1.0 kV=6.9282 kVA=7.5 conn=wye
~ wdg=2 bus=-99999945291152.1.0 kV=0.069282 kVA=7.5 conn=wye
New Transformer.293588A53F66EE34E0637F61810A7CE3_6_1 phases=1 windings=2 xhl=0.5 %R=0.353554 %imag=1e-06 %noloadloss=0
~ wdg=1 bus=45291152.2.0 kV=6.9282 kVA=7.5 conn=wye
~ wdg=2 bus=-99999945291152.2.0 kV=0.069282 kVA=7.5 conn=wye
New Transformer.293588B4A78EEE34E0637F61810A7CE3_7_0 phases=1 windings=2 xhl=0.5 %R=0.353554 %imag=1e-06 %noloadloss=0
~ wdg=1 bus=207516806.1.2 kV=12 kVA=100 conn=delta
~ wdg=2 bus=-999999207516806.1.0 kV=0.159926 kVA=100 conn=wye
New Transformer.293588B4A78EEE34E0637F61810A7CE3_7_1 phases=1 windings=2 xhl=0.5 %R=0.353554 %imag=1e-06 %noloadloss=0
~ wdg=1 bus=207516806.2.3 kV=12 kVA=100 conn=delta
~ wdg=2 bus=-999999207516806.2.0 kV=0.159926 kVA=100 conn=wye
New Transformer.293588B4A78EEE34E0637F61810A7CE3_7_2 phases=1 windings=2 xhl=0.5 %R=0.353554 %imag=1e-06 %noloadloss=0
~ wdg=1 bus=207516806.3.1 kV=12 kVA=100 conn=delta
~ wdg=2 bus=-999999207516806.3.0 kV=0.159926 kVA=100 conn=wye
New Transformer.293588B4FDDAEE34E0637F61810A7CE3_8_0 phases=1 windings=2 xhl=0.5 %R=0.353554 %imag=1e-06 %noloadloss=0
~ wdg=1 bus=243625728.1.2 kV=12 kVA=250 conn=delta
~ wdg=2 bus=-999999243625728.1.0 kV=0.159926 kVA=250 conn=wye
New Transformer.293588B4FDDAEE34E0637F61810A7CE3_8_1 phases=1 windings=2 xhl=0.5 %R=0.353554 %imag=1e-06 %noloadloss=0
~ wdg=1 bus=243625728.2.3 kV=12 kVA=250 conn=delta
~ wdg=2 bus=-999999243625728.2.0 kV=0.159926 kVA=250 conn=wye
New Transformer.293588B4FDDAEE34E0637F61810A7CE3_8_2 phases=1 windings=2 xhl=0.5 %R=0.353554 %imag=1e-06 %noloadloss=0
~ wdg=1 bus=243625728.3.1 kV=12 kVA=250 conn=delta
~ wdg=2 bus=-999999243625728.3.0 kV=0.159926 kVA=250 conn=wye
New Transformer.293588A8906FEE34E0637F61810A7CE3_9_0 phases=1 windings=2 xhl=0.5 %R=0.353554 %imag=1e-06 %noloadloss=0
~ wdg=1 bus=20759334.1.0 kV=6.9282 kVA=12.5 conn=wye
~ wdg=2 bus=-99999920759334.1.0 kV=0.069282 kVA=12.5 conn=wye
New Transformer.293588A8906FEE34E0637F61810A7CE3_9_1 phases=1 windings=2 xhl=0.5 %R=0.353554 %imag=1e-06 %noloadloss=0
~ wdg=1 bus=20759334.2.0 kV=6.9282 kVA=12.5 conn=wye
~ wdg=2 bus=-99999920759334.2.0 kV=0.069282 kVA=12.5 conn=wye
New Transformer.293588B48ECBEE34E0637F61810A7CE3_10_0 phases=1 windings=2 xhl=0.5 %R=0.353554 %imag=1e-06 %noloadloss=0
~ wdg=1 bus=197661445.1.2 kV=12 kVA=166.667 conn=delta
~ wdg=2 bus=-999999197661445.1.0 kV=0.159926 kVA=166.667 conn=wye
New Transformer.293588B48ECBEE34E0637F61810A7CE3_10_1 phases=1 windings=2 xhl=0.5 %R=0.353554 %imag=1e-06 %noloadloss=0
~ wdg=1 bus=197661445.2.3 kV=12 kVA=166.667 conn=delta
~ wdg=2 bus=-999999197661445.2.0 kV=0.159926 kVA=166.667 conn=wye
New Transformer.293588B48ECBEE34E0637F61810A7CE3_10_2 phases=1 windings=2 xhl=0.5 %R=0.353554 %imag=1e-06 %noloadloss=0
~ wdg=1 bus=197661445.3.1 kV=12 kVA=166.667 conn=delta
~ wdg=2 bus=-999999197661445.3.0 kV=0.159926 kVA=166.667 conn=wye
New Transformer.293588A53F61EE34E0637F61810A7CE3_11_0 phases=1 windings=2 xhl=0.5 %R=0.353554 %imag=1e-06 %noloadloss=0
~ wdg=1 bus=45290857.2.0 kV=6.9282 kVA=25 conn=wye
~ wdg=2 bus=-99999945290857.2.0 kV=0.069282 kVA=25 conn=wye
New Transformer.293588A53F61EE34E0637F61810A7CE3_11_1 phases=1 windings=2 xhl=0.5 %R=0.353554 %imag=1e-06 %noloadloss=0
~ wdg=1 bus=45290857.3.0 kV=6.9282 kVA=25 conn=wye
~ wdg=2 bus=-99999945290857.3.0 kV=0.069282 kVA=25 conn=wye
New Transformer.293588A89075EE34E0637F61810A7CE3_12_0 phases=1 windings=2 xhl=0.5 %R=0.353554 %imag=1e-06 %noloadloss=0
~ wdg=1 bus=20759546.1.2 kV=12 kVA=6.66667 conn=delta
~ wdg=2 bus=-99999920759546.1.2 kV=0.069282 kVA=6.66667 conn=delta
New Transformer.293588A89075EE34E0637F61810A7CE3_12_1 phases=1 windings=2 xhl=0.5 %R=0.353554 %imag=1e-06 %noloadloss=0
~ wdg=1 bus=20759546.2.3 kV=12 kVA=6.66667 conn=delta
~ wdg=2 bus=-99999920759546.2.3 kV=0.069282 kVA=6.66667 conn=delta
New Transformer.293588A89075EE34E0637F61810A7CE3_12_2 phases=1 windings=2 xhl=0.5 %R=0.353554 %imag=1e-06 %noloadloss=0
~ wdg=1 bus=20759546.3.1 kV=12 kVA=6.66667 conn=delta
~ wdg=2 bus=-99999920759546.3.1 kV=0.069282 kVA=6.66667 conn=delta
New Transformer.293588A7EF41EE34E0637F61810A7CE3_13_0 phases=1 windings=2 xhl=0.5 %R=0.353554 %imag=1e-06 %noloadloss=0
~ wdg=1 bus=141891015.1.2 kV=12 kVA=37.5 conn=delta
~ wdg=2 bus=-999999141891015.1.0 kV=0.159926 kVA=37.5 conn=wye
New Transformer.293588A7EF41EE34E0637F61810A7CE3_13_1 phases=1 windings=2 xhl=0.5 %R=0.353554 %imag=1e-06 %noloadloss=0
~ wdg=1 bus=141891015.2.3 kV=12 kVA=37.5 conn=delta
~ wdg=2 bus=-999999141891015.2.0 kV=0.159926 kVA=37.5 conn=wye
New Transformer.293588A7EF41EE34E0637F61810A7CE3_13_2 phases=1 windings=2 xhl=0.5 %R=0.353554 %imag=1e-06 %noloadloss=0
~ wdg=1 bus=141891015.3.1 kV=12 kVA=37.5 conn=delta
~ wdg=2 bus=-999999141891015.3.0 kV=0.159926 kVA=37.5 conn=wye
New Transformer.293588A53F69EE34E0637F61810A7CE3_14_0 phases=1 windings=2 xhl=0.5 %R=0.353554 %imag=1e-06 %noloadloss=0
~ wdg=1 bus=45291260.1.2 kV=12 kVA=15 conn=delta
~ wdg=2 bus=-99999945291260.1.0 kV=0.159926 kVA=15 conn=wye
New Transformer.293588A53F69EE34E0637F61810A7CE3_14_1 phases=1 windings=2 xhl=0.5 %R=0.353554 %imag=1e-06 %noloadloss=0
~ wdg=1 bus=45291260.2.3 kV=12 kVA=15 conn=delta
~ wdg=2 bus=-99999945291260.2.0 kV=0.159926 kVA=15 conn=wye
New Transformer.293588A53F69EE34E0637F61810A7CE3_14_2 phases=1 windings=2 xhl=0.5 %R=0.353554 %imag=1e-06 %noloadloss=0
~ wdg=1 bus=45291260.3.1 kV=12 kVA=15 conn=delta
...